[General]
ned-path = .;../environment/samples/queueinglib
network = rete 
cmdenv-config-name = rete_Base
qtenv-default-config = rete_Base

repeat = 5
sim-time-limit = 10000s
cpu-time-limit = 60s
**.vector-recording = false

[Config rete_Base]
description = "Global scenario"
**.sink.lifeTime.result-recording-modes = +histogram

[Config rete_p01]
extends = rete_Base
**.p = 0.1

[Config rete_p02]
extends = rete_Base
**.p = 0.2

[Config rete_p03]
extends = rete_Base
**.p = 0.3

[Config rete_p04]
extends = rete_Base
**.p = 0.4

[Config rete_p05]
extends = rete_Base
**.p = 0.5

[Config rete_p06]
extends = rete_Base
**.p = 0.6

[Config rete_p07]
extends = rete_Base
**.p = 0.7

[Config rete_p08]
extends = rete_Base
**.p = 0.8

[Config rete_p09]
extends = rete_Base
**.p = 0.9
