[General]
ned-path = .;../environment/samples/queueinglib
network = rete
sim-time-limit = 300s
repeat = 3
**.vector-recording = false

[Config rete_Base]
description = "MG1 – sweep rho e cv"
**.mu = 100
**.sink.lifeTime.result-recording-modes = +histogram
**.srv.serviceTime.result-recording-modes = +histogram



[Config rete_rho70_cv5]
extends = rete_Base
**.rho = 0.7
**.cv = 0.5


[Config rete_rho70_cv10]
extends = rete_Base
**.rho = 0.7
**.cv = 1.0


[Config rete_rho70_cv15]
extends = rete_Base
**.rho = 0.7
**.cv = 1.5


[Config rete_rho90_cv5]
extends = rete_Base
**.rho = 0.9
**.cv = 0.5


[Config rete_rho90_cv10]
extends = rete_Base
**.rho = 0.9
**.cv = 1.0


[Config rete_rho90_cv15]
extends = rete_Base
**.rho = 0.9
**.cv = 1.5

