[General]
ned-path = .;../environment/samples/queueinglib
network = rete 
cmdenv-config-name = rete_Base
qtenv-default-config = rete_Base

repeat = 5
sim-time-limit = 10000s
cpu-time-limit = 60s
**.vector-recording = false

[Config rete_Base]
description = "Global scenario"
**.sink_global.lifeTime.result-recording-modes = +histogram

[Config rete_p005]
extends = rete_Base
**.p = 0.05

[Config rete_p010]
extends = rete_Base
**.p = 0.1

[Config rete_p015]
extends = rete_Base
**.p = 0.15

[Config rete_p020]
extends = rete_Base
**.p = 0.2

[Config rete_p025]
extends = rete_Base
**.p = 0.25

[Config rete_p030]
extends = rete_Base
**.p = 0.3

[Config rete_p035]
extends = rete_Base
**.p = 0.35

[Config rete_p040]
extends = rete_Base
**.p = 0.4

[Config rete_p045]
extends = rete_Base
**.p = 0.45

[Config rete_p050]
extends = rete_Base
**.p = 0.5
